%NProcShared=24
%Mem=80GB
%Chk=MN15_3_A.chk
#p UMN15/def2TZVP SCF=QC DensityFit Stable=(Opt,XQC)

(3,SSG)

0 3
 Fe                 0.00000000   -0.02343800   -0.00001900
 N                 -1.90626700   -0.35700400    0.00014600
 N                  0.00000000   -1.88228900   -0.00000900
 N                  1.91300310   -0.36497275    0.15876093
 N                  0.00000000    1.80681600   -0.00003000
 N                  0.00000000    2.91614400   -0.00004700
 C                 -2.29070100   -1.62131500    0.00003700
 C                 -1.19372100   -2.54775000   -0.00000700
 C                  1.19372100   -2.54775000   -0.00000500
 C                  2.29070100   -1.62131500   -0.00004800
 C                 -2.88427800    0.67228300    0.00038300
 C                 -3.32300200    1.19247900   -1.21972500
 C                 -4.24579900    2.23397200   -1.20084200
 H                 -4.59248100    2.64620900   -2.14201100
 C                 -4.71219300    2.74956100    0.00083800
 H                 -5.42780400    3.56200800    0.00101900
 C                 -4.24596900    2.23328900    1.20229100
 C                 -3.32317600    1.19178300    1.22072500
 C                  2.89186291    0.66331012    0.17888764
 C                  3.22835576    1.30411049   -1.01605662
 C                  4.15382442    2.34244950   -0.97153327
 C                  4.72201549    2.73794212    0.23185081
 H                  5.43849897    3.54935599    0.25250468
 C                  4.35656648    2.10278201    1.41100822
 H                  4.78322407    2.42028803    2.35603782
 C                  3.43424502    1.06072353    1.40348242
 H                  4.42165122    2.84771603   -1.89289172
 H                 -4.59277200    2.64500800    2.14364300
 C                 -2.77105300    0.64314200   -2.50225300
 H                 -3.17143700    1.18132800   -3.36079200
 H                 -1.67904700    0.72323400   -2.51328000
 H                 -3.00289100   -0.41867900   -2.62053200
 C                 -2.77133500    0.64182300    2.50303600
 H                 -3.00314300   -0.42005900    2.62079900
 H                 -1.67933700    0.72194700    2.51419100
 H                 -3.17181800    1.17958200    3.36179600
 C                  2.56788607    0.88282095   -2.29574492
 H                  1.47919544    0.95902939   -2.20658720
 H                  2.89670830    1.50546399   -3.12714856
 H                  2.78441724   -0.16096608   -2.53826934
 C                  2.99022706    0.38354038    2.66664029
 H                  3.46395448    0.83485279    3.53781245
 H                  1.90340196    0.45750738    2.77778649
 H                  3.22670865   -0.68379559    2.65813238
 C                 -3.72988100   -2.02071700    0.00002200
 H                 -3.84199300   -3.10279300   -0.00094900
 H                 -4.24408000   -1.61846200    0.87725000
 H                 -4.24446000   -1.61682200   -0.87621900
 C                  3.72303149   -2.01261408   -0.16152683
 H                  4.31148368   -1.69621447    0.70411532
 H                  3.83022840   -3.08887565   -0.27826746
 H                  4.16301409   -1.52245641   -1.03439488
 C                 -1.21037300   -3.93526300   -0.00002200
 C                  1.21037300   -3.93526300    0.00001700
 H                 -2.14961900   -4.47265600   -0.00003000
 H                  2.14961900   -4.47265600    0.00002900
 C                  0.00000000   -4.63067000   -0.00000100
 H                  0.00000000   -5.71236600    0.00000100

