%NProcShared=24
%Mem=80GB
%Chk=M06L_3_A.chk
#p UM06L/def2TZVP SCF=QC DensityFit Stable=(Opt,XQC)

(3,SSG)

0 3
 Fe                 0.00000000   -0.02247400   -0.00000400
 N                 -1.90746800   -0.36281400    0.00012700
 N                  0.00000000   -1.89230000   -0.00000900
 N                  1.91259109   -0.36892138    0.13952900
 N                  0.00000000    1.78935900    0.00000200
 N                  0.00000200    2.91132300    0.00000500
 C                 -2.28992500   -1.64201700    0.00002900
 C                 -1.19806000   -2.55722600   -0.00000800
 C                  1.19806000   -2.55722600   -0.00001300
 C                  2.28992500   -1.64201700   -0.00004300
 C                 -2.88051900    0.66833800    0.00030800
 C                 -3.31218200    1.19819100   -1.22061100
 C                 -4.21915100    2.25165700   -1.19802400
 H                 -4.55912600    2.67064500   -2.13780500
 C                 -4.67740000    2.77247300    0.00063200
 H                 -5.38102000    3.59458900    0.00076100
 C                 -4.21918800    2.25125100    1.19912500
 C                 -3.31222400    1.19777000    1.22139300
 C                  2.88632300    0.66141889    0.15817866
 C                  3.22924168    1.29679493   -1.04032767
 C                  4.13877895    2.34720698   -0.99259609
 C                  4.68510283    2.76329025    0.21007674
 H                  5.38946031    3.58452709    0.23023704
 C                  4.31409686    2.13837130    1.38899473
 H                  4.72324629    2.47481619    2.33436409
 C                  3.40783780    1.08405648    1.38582662
 H                  4.41044840    2.84741574   -1.91471676
 H                 -4.55918100    2.66993200    2.13903500
 C                 -2.77028000    0.65694200   -2.50315600
 H                 -3.15894400    1.20302500   -3.35977600
 H                 -1.67825600    0.72132600   -2.52415500
 H                 -3.01045600   -0.39901100   -2.64069200
 C                 -2.77027500    0.65620500    2.50378700
 H                 -3.01021000   -0.39984200    2.64098800
 H                 -1.67827000    0.72084300    2.52486500
 H                 -3.15910500    1.20192700    3.36056200
 C                  2.59320997    0.86749289   -2.32200643
 H                  1.50280164    0.93022903   -2.25742966
 H                  2.92007582    1.48715396   -3.15401852
 H                  2.81908234   -0.17177548   -2.56803650
 C                  2.95946755    0.43120033    2.65242651
 H                  3.41149840    0.90167325    3.52270676
 H                  1.87211742    0.49001509    2.75878613
 H                  3.20567119   -0.63195276    2.67933616
 C                 -3.71848800   -2.05128500    0.00010000
 H                 -3.82282900   -3.13276800   -0.00172400
 H                 -4.24702300   -1.66382500    0.87395400
 H                 -4.24794200   -1.66070200   -0.87178100
 C                  3.71333224   -2.04513866   -0.14039004
 H                  4.30642016   -1.73048893    0.72117462
 H                  3.81405642   -3.12231006   -0.24065058
 H                  4.17774322   -1.58116100   -1.01339765
 C                 -1.20796200   -3.94694900   -0.00002600
 C                  1.20796200   -3.94694800   -0.00000600
 H                 -2.14687900   -4.48361000   -0.00002100
 H                  2.14687900   -4.48361000   -0.00001500
 C                  0.00000000   -4.63755500   -0.00001900
 H                  0.00000000   -5.71888600   -0.00002300

 